[General]
network = block_gen
sim-time-limit = 100s 

*.dev[*].enableVerify = true
